powerflow/37Bus/ieee37e.dss
Clear

New object=circuit.ieee37
~ basekv=230 pu=1.00 MVAsc3=200000 MVAsc1=210000

! Substation Transformer
New Transformer.SubXF Phases=3 Windings=2 Xhl=8
~ wdg=1 bus=sourcebus conn=Delta kv=230   kva=2500   %r=1
~ wdg=2 bus=799       conn=Delta kv=4.8   kva=2500   %r=1

! Load Transformer
New Transformer.XFM1  Phases=3 Windings=2 Xhl=1.81
~ wdg=1 bus=709       conn=Delta kv=4.80  kva=500    %r=0.045
~ wdg=2 bus=775       conn=Delta kv=0.48  kva=500    %r=0.045

! import line codes with phase impedance matrices
Redirect        IEEELineCodes.dss

! Lines
New Line.L1     Phases=3 Bus1=701.1.2.3  Bus2=702.1.2.3  LineCode=722  Length=0.96
New Line.L2     Phases=3 Bus1=702.1.2.3  Bus2=705.1.2.3  LineCode=724  Length=0.4
New Line.L3     Phases=3 Bus1=702.1.2.3  Bus2=713.1.2.3  LineCode=723  Length=0.36
New Line.L4     Phases=3 Bus1=702.1.2.3  Bus2=703.1.2.3  LineCode=722  Length=1.32
New Line.L5     Phases=3 Bus1=703.1.2.3  Bus2=727.1.2.3  LineCode=724  Length=0.24
New Line.L6     Phases=3 Bus1=703.1.2.3  Bus2=730.1.2.3  LineCode=723  Length=0.6
New Line.L7     Phases=3 Bus1=704.1.2.3  Bus2=714.1.2.3  LineCode=724  Length=0.08
New Line.L8     Phases=3 Bus1=704.1.2.3  Bus2=720.1.2.3  LineCode=723  Length=0.8
New Line.L9     Phases=3 Bus1=705.1.2.3  Bus2=742.1.2.3  LineCode=724  Length=0.32
New Line.L10    Phases=3 Bus1=705.1.2.3  Bus2=712.1.2.3  LineCode=724  Length=0.24
New Line.L11    Phases=3 Bus1=706.1.2.3  Bus2=725.1.2.3  LineCode=724  Length=0.28
New Line.L12    Phases=3 Bus1=707.1.2.3  Bus2=724.1.2.3  LineCode=724  Length=0.76
New Line.L13    Phases=3 Bus1=707.1.2.3  Bus2=722.1.2.3  LineCode=724  Length=0.12
New Line.L14    Phases=3 Bus1=708.1.2.3  Bus2=733.1.2.3  LineCode=723  Length=0.32
New Line.L15    Phases=3 Bus1=708.1.2.3  Bus2=732.1.2.3  LineCode=724  Length=0.32
New Line.L16    Phases=3 Bus1=709.1.2.3  Bus2=731.1.2.3  LineCode=723  Length=0.6
New Line.L17    Phases=3 Bus1=709.1.2.3  Bus2=708.1.2.3  LineCode=723  Length=0.32
New Line.L18    Phases=3 Bus1=710.1.2.3  Bus2=735.1.2.3  LineCode=724  Length=0.2
New Line.L19    Phases=3 Bus1=710.1.2.3  Bus2=736.1.2.3  LineCode=724  Length=1.28
New Line.L20    Phases=3 Bus1=711.1.2.3  Bus2=741.1.2.3  LineCode=723  Length=0.4
New Line.L21    Phases=3 Bus1=711.1.2.3  Bus2=740.1.2.3  LineCode=724  Length=0.2
New Line.L22    Phases=3 Bus1=713.1.2.3  Bus2=704.1.2.3  LineCode=723  Length=0.52
New Line.L23    Phases=3 Bus1=714.1.2.3  Bus2=718.1.2.3  LineCode=724  Length=0.52
New Line.L24    Phases=3 Bus1=720.1.2.3  Bus2=707.1.2.3  LineCode=724  Length=0.92
New Line.L25    Phases=3 Bus1=720.1.2.3  Bus2=706.1.2.3  LineCode=723  Length=0.6
New Line.L26    Phases=3 Bus1=727.1.2.3  Bus2=744.1.2.3  LineCode=723  Length=0.28
New Line.L27    Phases=3 Bus1=730.1.2.3  Bus2=709.1.2.3  LineCode=723  Length=0.2
New Line.L28    Phases=3 Bus1=733.1.2.3  Bus2=734.1.2.3  LineCode=723  Length=0.56
New Line.L29    Phases=3 Bus1=734.1.2.3  Bus2=737.1.2.3  LineCode=723  Length=0.64
New Line.L30    Phases=3 Bus1=734.1.2.3  Bus2=710.1.2.3  LineCode=724  Length=0.52
New Line.L31    Phases=3 Bus1=737.1.2.3  Bus2=738.1.2.3  LineCode=723  Length=0.4
New Line.L32    Phases=3 Bus1=738.1.2.3  Bus2=711.1.2.3  LineCode=723  Length=0.4
New Line.L33    Phases=3 Bus1=744.1.2.3  Bus2=728.1.2.3  LineCode=724  Length=0.2
New Line.L34    Phases=3 Bus1=744.1.2.3  Bus2=729.1.2.3  LineCode=724  Length=0.28
New Line.L35    Phases=3 Bus1=799r.1.2.3 Bus2=701.1.2.3  LineCode=721  Length=1.85

! Regulator - open delta with C leading, A lagging, base LDC setting is 1.5 + j3
new transformer.reg1a phases=1 windings=2 buses=(799.1.2 799r.1.2) conns='delta delta' kvs="4.8 4.8" kvas="2000 2000" XHL=1
new regcontrol.creg1a transformer=reg1a winding=2 vreg=122 band=2 ptratio=40 ctprim=350 R=-0.201 X=3.348
new transformer.reg1c like=reg1a buses=(799.3.2 799r.3.2)
new regcontrol.creg1c like=creg1a transformer=reg1c R=2.799 X=1.848
New Line.Jumper Phases=1 Bus1=799.2      Bus2=799r.2     r0=1e-3 r1=1e-3 x0=0 x1=0 c0=0 c1=0

! spot loads
New Load.709a  Bus1= 709.1  Phases=1 Conn=Wye Model=1 kW=0 kvar=0 kV=4.8
New Load.709b  Bus1= 709.2  Phases=1 Conn=Wye Model=1 kW=0 kvar=0 kV=4.8
New Load.709c  Bus1= 709.3  Phases=1 Conn=Wye Model=1 kW=0 kvar=0 kV=4.8
New Load.775a  Bus1= 775.1  Phases=1 Conn=Wye Model=1 kW=0 kvar=0 kV=0.48
New Load.775b  Bus1= 775.2  Phases=1 Conn=Wye Model=1 kW=0 kvar=0 kV=0.48
New Load.775c  Bus1= 775.3  Phases=1 Conn=Wye Model=1 kW=0 kvar=0 kV=0.48
New Load.701a  Bus1= 701.1  Phases=1 Conn=Wye Model=1 kW=0 kvar=0 kV=4.8
New Load.701b  Bus1= 701.2  Phases=1 Conn=Wye Model=1 kW=0 kvar=0 kV=4.8
New Load.701c  Bus1= 701.3  Phases=1 Conn=Wye Model=1 kW=0 kvar=0 kV=4.8
New Load.702a  Bus1= 702.1  Phases=1 Conn=Wye Model=1 kW=0 kvar=0 kV=4.8
New Load.702b  Bus1= 702.2  Phases=1 Conn=Wye Model=1 kW=0 kvar=0 kV=4.8
New Load.702c  Bus1= 702.3  Phases=1 Conn=Wye Model=1 kW=0 kvar=0 kV=4.8
New Load.705a  Bus1= 705.1  Phases=1 Conn=Wye Model=1 kW=0 kvar=0 kV=4.8
New Load.705b  Bus1= 705.2  Phases=1 Conn=Wye Model=1 kW=0 kvar=0 kV=4.8
New Load.705c  Bus1= 705.3  Phases=1 Conn=Wye Model=1 kW=0 kvar=0 kV=4.8
New Load.713a  Bus1= 713.1  Phases=1 Conn=Wye Model=1 kW=0 kvar=0 kV=4.8
New Load.713b  Bus1= 713.2  Phases=1 Conn=Wye Model=1 kW=0 kvar=0 kV=4.8
New Load.713c  Bus1= 713.3  Phases=1 Conn=Wye Model=1 kW=0 kvar=0 kV=4.8
New Load.703a  Bus1= 703.1  Phases=1 Conn=Wye Model=1 kW=0 kvar=0 kV=4.8
New Load.703b  Bus1= 703.2  Phases=1 Conn=Wye Model=1 kW=0 kvar=0 kV=4.8
New Load.703c  Bus1= 703.3  Phases=1 Conn=Wye Model=1 kW=0 kvar=0 kV=4.8
New Load.727a  Bus1= 727.1  Phases=1 Conn=Wye Model=1 kW=0 kvar=0 kV=4.8
New Load.727b  Bus1= 727.2  Phases=1 Conn=Wye Model=1 kW=0 kvar=0 kV=4.8
New Load.727c  Bus1= 727.3  Phases=1 Conn=Wye Model=1 kW=0 kvar=0 kV=4.8
New Load.730a  Bus1= 730.1  Phases=1 Conn=Wye Model=1 kW=0 kvar=0 kV=4.8
New Load.730b  Bus1= 730.2  Phases=1 Conn=Wye Model=1 kW=0 kvar=0 kV=4.8
New Load.730c  Bus1= 730.3  Phases=1 Conn=Wye Model=1 kW=0 kvar=0 kV=4.8
New Load.704a  Bus1= 704.1  Phases=1 Conn=Wye Model=1 kW=0 kvar=0 kV=4.8
New Load.704b  Bus1= 704.2  Phases=1 Conn=Wye Model=1 kW=0 kvar=0 kV=4.8
New Load.704c  Bus1= 704.3  Phases=1 Conn=Wye Model=1 kW=0 kvar=0 kV=4.8
New Load.714a  Bus1= 714.1  Phases=1 Conn=Wye Model=1 kW=0 kvar=0 kV=4.8
New Load.714b  Bus1= 714.2  Phases=1 Conn=Wye Model=1 kW=0 kvar=0 kV=4.8
New Load.714c  Bus1= 714.3  Phases=1 Conn=Wye Model=1 kW=0 kvar=0 kV=4.8
New Load.720a  Bus1= 720.1  Phases=1 Conn=Wye Model=1 kW=0 kvar=0 kV=4.8
New Load.720b  Bus1= 720.2  Phases=1 Conn=Wye Model=1 kW=0 kvar=0 kV=4.8
New Load.720c  Bus1= 720.3  Phases=1 Conn=Wye Model=1 kW=0 kvar=0 kV=4.8
New Load.742a  Bus1= 742.1  Phases=1 Conn=Wye Model=1 kW=0 kvar=0 kV=4.8
New Load.742b  Bus1= 742.2  Phases=1 Conn=Wye Model=1 kW=0 kvar=0 kV=4.8
New Load.742c  Bus1= 742.3  Phases=1 Conn=Wye Model=1 kW=0 kvar=0 kV=4.8
New Load.712a  Bus1= 712.1  Phases=1 Conn=Wye Model=1 kW=0 kvar=0 kV=4.8
New Load.712b  Bus1= 712.2  Phases=1 Conn=Wye Model=1 kW=0 kvar=0 kV=4.8
New Load.712c  Bus1= 712.3  Phases=1 Conn=Wye Model=1 kW=0 kvar=0 kV=4.8
New Load.706a  Bus1= 706.1  Phases=1 Conn=Wye Model=1 kW=0 kvar=0 kV=4.8
New Load.706b  Bus1= 706.2  Phases=1 Conn=Wye Model=1 kW=0 kvar=0 kV=4.8
New Load.706c  Bus1= 706.3  Phases=1 Conn=Wye Model=1 kW=0 kvar=0 kV=4.8
New Load.725a  Bus1= 725.1  Phases=1 Conn=Wye Model=1 kW=0 kvar=0 kV=4.8
New Load.725b  Bus1= 725.2  Phases=1 Conn=Wye Model=1 kW=0 kvar=0 kV=4.8
New Load.725c  Bus1= 725.3  Phases=1 Conn=Wye Model=1 kW=0 kvar=0 kV=4.8
New Load.707a  Bus1= 707.1  Phases=1 Conn=Wye Model=1 kW=0 kvar=0 kV=4.8
New Load.707b  Bus1= 707.2  Phases=1 Conn=Wye Model=1 kW=0 kvar=0 kV=4.8
New Load.707c  Bus1= 707.3  Phases=1 Conn=Wye Model=1 kW=0 kvar=0 kV=4.8
New Load.724a  Bus1= 724.1  Phases=1 Conn=Wye Model=1 kW=0 kvar=0 kV=4.8
New Load.724b  Bus1= 724.2  Phases=1 Conn=Wye Model=1 kW=0 kvar=0 kV=4.8
New Load.724c  Bus1= 724.3  Phases=1 Conn=Wye Model=1 kW=0 kvar=0 kV=4.8
New Load.722a  Bus1= 722.1  Phases=1 Conn=Wye Model=1 kW=0 kvar=0 kV=4.8
New Load.722b  Bus1= 722.2  Phases=1 Conn=Wye Model=1 kW=0 kvar=0 kV=4.8
New Load.722c  Bus1= 722.3  Phases=1 Conn=Wye Model=1 kW=0 kvar=0 kV=4.8
New Load.708a  Bus1= 708.1  Phases=1 Conn=Wye Model=1 kW=0 kvar=0 kV=4.8
New Load.708b  Bus1= 708.2  Phases=1 Conn=Wye Model=1 kW=0 kvar=0 kV=4.8
New Load.708c  Bus1= 708.3  Phases=1 Conn=Wye Model=1 kW=0 kvar=0 kV=4.8
New Load.733a  Bus1= 733.1  Phases=1 Conn=Wye Model=1 kW=0 kvar=0 kV=4.8
New Load.733b  Bus1= 733.2  Phases=1 Conn=Wye Model=1 kW=0 kvar=0 kV=4.8
New Load.733c  Bus1= 733.3  Phases=1 Conn=Wye Model=1 kW=0 kvar=0 kV=4.8
New Load.732a  Bus1= 732.1  Phases=1 Conn=Wye Model=1 kW=0 kvar=0 kV=4.8
New Load.732b  Bus1= 732.2  Phases=1 Conn=Wye Model=1 kW=0 kvar=0 kV=4.8
New Load.732c  Bus1= 732.3  Phases=1 Conn=Wye Model=1 kW=0 kvar=0 kV=4.8
New Load.731a  Bus1= 731.1  Phases=1 Conn=Wye Model=1 kW=0 kvar=0 kV=4.8
New Load.731b  Bus1= 731.2  Phases=1 Conn=Wye Model=1 kW=0 kvar=0 kV=4.8
New Load.731c  Bus1= 731.3  Phases=1 Conn=Wye Model=1 kW=0 kvar=0 kV=4.8
New Load.710a  Bus1= 710.1  Phases=1 Conn=Wye Model=1 kW=0 kvar=0 kV=4.8
New Load.710b  Bus1= 710.2  Phases=1 Conn=Wye Model=1 kW=0 kvar=0 kV=4.8
New Load.710c  Bus1= 710.3  Phases=1 Conn=Wye Model=1 kW=0 kvar=0 kV=4.8
New Load.735a  Bus1= 735.1  Phases=1 Conn=Wye Model=1 kW=0 kvar=0 kV=4.8
New Load.735b  Bus1= 735.2  Phases=1 Conn=Wye Model=1 kW=0 kvar=0 kV=4.8
New Load.735c  Bus1= 735.3  Phases=1 Conn=Wye Model=1 kW=0 kvar=0 kV=4.8
New Load.736a  Bus1= 736.1  Phases=1 Conn=Wye Model=1 kW=0 kvar=0 kV=4.8
New Load.736b  Bus1= 736.2  Phases=1 Conn=Wye Model=1 kW=0 kvar=0 kV=4.8
New Load.736c  Bus1= 736.3  Phases=1 Conn=Wye Model=1 kW=0 kvar=0 kV=4.8
New Load.711a  Bus1= 711.1  Phases=1 Conn=Wye Model=1 kW=0 kvar=0 kV=4.8
New Load.711b  Bus1= 711.2  Phases=1 Conn=Wye Model=1 kW=0 kvar=0 kV=4.8
New Load.711c  Bus1= 711.3  Phases=1 Conn=Wye Model=1 kW=0 kvar=0 kV=4.8
New Load.741a  Bus1= 741.1  Phases=1 Conn=Wye Model=1 kW=0 kvar=0 kV=4.8
New Load.741b  Bus1= 741.2  Phases=1 Conn=Wye Model=1 kW=0 kvar=0 kV=4.8
New Load.741c  Bus1= 741.3  Phases=1 Conn=Wye Model=1 kW=0 kvar=0 kV=4.8
New Load.740a  Bus1= 740.1  Phases=1 Conn=Wye Model=1 kW=0 kvar=0 kV=4.8
New Load.740b  Bus1= 740.2  Phases=1 Conn=Wye Model=1 kW=0 kvar=0 kV=4.8
New Load.740c  Bus1= 740.3  Phases=1 Conn=Wye Model=1 kW=0 kvar=0 kV=4.8
New Load.718a  Bus1= 718.1  Phases=1 Conn=Wye Model=1 kW=0 kvar=0 kV=4.8
New Load.718b  Bus1= 718.2  Phases=1 Conn=Wye Model=1 kW=0 kvar=0 kV=4.8
New Load.718c  Bus1= 718.3  Phases=1 Conn=Wye Model=1 kW=0 kvar=0 kV=4.8
New Load.744a  Bus1= 744.1  Phases=1 Conn=Wye Model=1 kW=0 kvar=0 kV=4.8
New Load.744b  Bus1= 744.2  Phases=1 Conn=Wye Model=1 kW=0 kvar=0 kV=4.8
New Load.744c  Bus1= 744.3  Phases=1 Conn=Wye Model=1 kW=0 kvar=0 kV=4.8
New Load.734a  Bus1= 734.1  Phases=1 Conn=Wye Model=1 kW=0 kvar=0 kV=4.8
New Load.734b  Bus1= 734.2  Phases=1 Conn=Wye Model=1 kW=0 kvar=0 kV=4.8
New Load.734c  Bus1= 734.3  Phases=1 Conn=Wye Model=1 kW=0 kvar=0 kV=4.8
New Load.737a  Bus1= 737.1  Phases=1 Conn=Wye Model=1 kW=0 kvar=0 kV=4.8
New Load.737b  Bus1= 737.2  Phases=1 Conn=Wye Model=1 kW=0 kvar=0 kV=4.8
New Load.737c  Bus1= 737.3  Phases=1 Conn=Wye Model=1 kW=0 kvar=0 kV=4.8
New Load.738a  Bus1= 738.1  Phases=1 Conn=Wye Model=1 kW=0 kvar=0 kV=4.8
New Load.738b  Bus1= 738.2  Phases=1 Conn=Wye Model=1 kW=0 kvar=0 kV=4.8
New Load.738c  Bus1= 738.3  Phases=1 Conn=Wye Model=1 kW=0 kvar=0 kV=4.8
New Load.728a  Bus1= 728.1  Phases=1 Conn=Wye Model=1 kW=0 kvar=0 kV=4.8
New Load.728b  Bus1= 728.2  Phases=1 Conn=Wye Model=1 kW=0 kvar=0 kV=4.8
New Load.728c  Bus1= 728.3  Phases=1 Conn=Wye Model=1 kW=0 kvar=0 kV=4.8
New Load.729a  Bus1= 729.1  Phases=1 Conn=Wye Model=1 kW=0 kvar=0 kV=4.8
New Load.729b  Bus1= 729.2  Phases=1 Conn=Wye Model=1 kW=0 kvar=0 kV=4.8
New Load.729c  Bus1= 729.3  Phases=1 Conn=Wye Model=1 kW=0 kvar=0 kV=4.8

Set VoltageBases = "230,4.8,0.48"
CalcVoltageBases
BusCoords IEEE37_BusXY.csv

! solve mode=direct
set maxiterations=100
Set Controlmode=OFF

solve

! show voltages LL Nodes
! show currents residual=y elements
! show powers kva elements
! show taps

